Geom Title=Bathymetry 2
Program Version=5.06
Viewing Rectangle= 587401.125228025 , 589591.684075795 , 2329391.09533266 , 2325831.30694311 

River Reach=River 1         ,Reach 1         
Reach XY= 7 
587500.696084742 2329229.2867695587989.5725000742328109.60207632
588236.569604654 2327798.5322365588538.9998183482327462.49866573
588905.5818955522326820.98003062589171.353901524 2326439.1237002
589492.1132190782325993.11550627
Rch Text X Y=587998.5503683,2328420.2439537
Reverse River Text= 0 

LCMann Time=Dec/30/1899 00:00:00
LCMann Region Time=Dec/30/1899 00:00:00
LCMann Table=0
Chan Stop Cuts=-1 



Use User Specified Reach Order=0
GIS Ratio Cuts To Invert=-1
GIS Limit At Bridges=0
Composite Channel Slope=5
