Geom Title=2D Flood Area
Program Version=5.06
Viewing Rectangle= 586346.988021734 , 591733.934481907 , 2327179.24490008 , 2324093.68379473 

Storage Area=Perimeter 1     ,589040.9958161,2325634.3483934
Storage Area Surface Line= 5 
586591.8492244692324241.68534449                
586599.5979967082327031.24335033                
591473.5757346952327038.99212257                
591489.0732791712324233.93657225                
586591.8492244692324241.68534449                
Storage Area Type= 1 
Storage Area Area=
Storage Area Min Elev=
Storage Area Is2D=-1
Storage Area Point Generation Data=,,90,90
Storage Area 2D Points= 1674 
586636.8492244692326993.99212257586726.8492244692326993.99212257
586816.8492244692326993.99212257586906.8492244692326993.99212257
586996.8492244692326993.99212257587086.8492244692326993.99212257
587176.8492244692326993.99212257587266.8492244692326993.99212257
587356.8492244692326993.99212257587446.8492244692326993.99212257
587536.8492244692326993.99212257587626.8492244692326993.99212257
587716.8492244692326993.99212257587806.8492244692326993.99212257
587896.8492244692326993.99212257587986.8492244692326993.99212257
588076.8492244692326993.99212257588166.8492244692326993.99212257
588256.8492244692326993.99212257588346.8492244692326993.99212257
588436.8492244692326993.99212257588526.8492244692326993.99212257
588616.8492244692326993.99212257588706.8492244692326993.99212257
588796.8492244692326993.99212257588886.8492244692326993.99212257
588976.8492244692326993.99212257589066.8492244692326993.99212257
589156.8492244692326993.99212257589246.8492244692326993.99212257
589336.8492244692326993.99212257589426.8492244692326993.99212257
589516.8492244692326993.99212257589606.8492244692326993.99212257
589696.8492244692326993.99212257589786.8492244692326993.99212257
589876.8492244692326993.99212257589966.8492244692326993.99212257
590056.8492244692326993.99212257590146.8492244692326993.99212257
590236.8492244692326993.99212257590326.8492244692326993.99212257
590416.8492244692326993.99212257590506.8492244692326993.99212257
590596.8492244692326993.99212257590686.8492244692326993.99212257
590776.8492244692326993.99212257590866.8492244692326993.99212257
590956.8492244692326993.99212257591046.8492244692326993.99212257
591136.8492244692326993.99212257591226.8492244692326993.99212257
591316.8492244692326993.99212257591406.8492244692326993.99212257
586636.8492244692326903.99212257586726.8492244692326903.99212257
586816.8492244692326903.99212257586906.8492244692326903.99212257
586996.8492244692326903.99212257587086.8492244692326903.99212257
587176.8492244692326903.99212257587266.8492244692326903.99212257
587356.8492244692326903.99212257587446.8492244692326903.99212257
587536.8492244692326903.99212257587626.8492244692326903.99212257
587716.8492244692326903.99212257587806.8492244692326903.99212257
587896.8492244692326903.99212257587986.8492244692326903.99212257
588076.8492244692326903.99212257588166.8492244692326903.99212257
588256.8492244692326903.99212257588346.8492244692326903.99212257
588436.8492244692326903.99212257588526.8492244692326903.99212257
588616.8492244692326903.99212257588706.8492244692326903.99212257
588796.8492244692326903.99212257588886.8492244692326903.99212257
588976.8492244692326903.99212257589066.8492244692326903.99212257
589156.8492244692326903.99212257589246.8492244692326903.99212257
589336.8492244692326903.99212257589426.8492244692326903.99212257
589516.8492244692326903.99212257589606.8492244692326903.99212257
589696.8492244692326903.99212257589786.8492244692326903.99212257
589876.8492244692326903.99212257589966.8492244692326903.99212257
590056.8492244692326903.99212257590146.8492244692326903.99212257
590236.8492244692326903.99212257590326.8492244692326903.99212257
590416.8492244692326903.99212257590506.8492244692326903.99212257
590596.8492244692326903.99212257590686.8492244692326903.99212257
590776.8492244692326903.99212257590866.8492244692326903.99212257
590956.8492244692326903.99212257591046.8492244692326903.99212257
591136.8492244692326903.99212257591226.8492244692326903.99212257
591316.8492244692326903.99212257591406.8492244692326903.99212257
586636.8492244692326813.99212257586726.8492244692326813.99212257
586816.8492244692326813.99212257586906.8492244692326813.99212257
586996.8492244692326813.99212257587086.8492244692326813.99212257
587176.8492244692326813.99212257587266.8492244692326813.99212257
587356.8492244692326813.99212257587446.8492244692326813.99212257
587536.8492244692326813.99212257587626.8492244692326813.99212257
587716.8492244692326813.99212257587806.8492244692326813.99212257
587896.8492244692326813.99212257587986.8492244692326813.99212257
588076.8492244692326813.99212257588166.8492244692326813.99212257
588256.8492244692326813.99212257588346.8492244692326813.99212257
588436.8492244692326813.99212257588526.8492244692326813.99212257
588616.8492244692326813.99212257588706.8492244692326813.99212257
588796.8492244692326813.99212257588886.8492244692326813.99212257
588976.8492244692326813.99212257589066.8492244692326813.99212257
589156.8492244692326813.99212257589246.8492244692326813.99212257
589336.8492244692326813.99212257589426.8492244692326813.99212257
589516.8492244692326813.99212257589606.8492244692326813.99212257
589696.8492244692326813.99212257589786.8492244692326813.99212257
589876.8492244692326813.99212257589966.8492244692326813.99212257
590056.8492244692326813.99212257590146.8492244692326813.99212257
590236.8492244692326813.99212257590326.8492244692326813.99212257
590416.8492244692326813.99212257590506.8492244692326813.99212257
590596.8492244692326813.99212257590686.8492244692326813.99212257
590776.8492244692326813.99212257590866.8492244692326813.99212257
590956.8492244692326813.99212257591046.8492244692326813.99212257
591136.8492244692326813.99212257591226.8492244692326813.99212257
591316.8492244692326813.99212257591406.8492244692326813.99212257
586636.8492244692326723.99212257586726.8492244692326723.99212257
586816.8492244692326723.99212257586906.8492244692326723.99212257
586996.8492244692326723.99212257587086.8492244692326723.99212257
587176.8492244692326723.99212257587266.8492244692326723.99212257
587356.8492244692326723.99212257587446.8492244692326723.99212257
587536.8492244692326723.99212257587626.8492244692326723.99212257
587716.8492244692326723.99212257587806.8492244692326723.99212257
587896.8492244692326723.99212257587986.8492244692326723.99212257
588076.8492244692326723.99212257588166.8492244692326723.99212257
588256.8492244692326723.99212257588346.8492244692326723.99212257
588436.8492244692326723.99212257588526.8492244692326723.99212257
588616.8492244692326723.99212257588706.8492244692326723.99212257
588796.8492244692326723.99212257588886.8492244692326723.99212257
588976.8492244692326723.99212257589066.8492244692326723.99212257
589156.8492244692326723.99212257589246.8492244692326723.99212257
589336.8492244692326723.99212257589426.8492244692326723.99212257
589516.8492244692326723.99212257589606.8492244692326723.99212257
589696.8492244692326723.99212257589786.8492244692326723.99212257
589876.8492244692326723.99212257589966.8492244692326723.99212257
590056.8492244692326723.99212257590146.8492244692326723.99212257
590236.8492244692326723.99212257590326.8492244692326723.99212257
590416.8492244692326723.99212257590506.8492244692326723.99212257
590596.8492244692326723.99212257590686.8492244692326723.99212257
590776.8492244692326723.99212257590866.8492244692326723.99212257
590956.8492244692326723.99212257591046.8492244692326723.99212257
591136.8492244692326723.99212257591226.8492244692326723.99212257
591316.8492244692326723.99212257591406.8492244692326723.99212257
586636.8492244692326633.99212257586726.8492244692326633.99212257
586816.8492244692326633.99212257586906.8492244692326633.99212257
586996.8492244692326633.99212257587086.8492244692326633.99212257
587176.8492244692326633.99212257587266.8492244692326633.99212257
587356.8492244692326633.99212257587446.8492244692326633.99212257
587536.8492244692326633.99212257587626.8492244692326633.99212257
587716.8492244692326633.99212257587806.8492244692326633.99212257
587896.8492244692326633.99212257587986.8492244692326633.99212257
588076.8492244692326633.99212257588166.8492244692326633.99212257
588256.8492244692326633.99212257588346.8492244692326633.99212257
588436.8492244692326633.99212257588526.8492244692326633.99212257
588616.8492244692326633.99212257588706.8492244692326633.99212257
588796.8492244692326633.99212257588886.8492244692326633.99212257
588976.8492244692326633.99212257589066.8492244692326633.99212257
589156.8492244692326633.99212257589246.8492244692326633.99212257
589336.8492244692326633.99212257589426.8492244692326633.99212257
589516.8492244692326633.99212257589606.8492244692326633.99212257
589696.8492244692326633.99212257589786.8492244692326633.99212257
589876.8492244692326633.99212257589966.8492244692326633.99212257
590056.8492244692326633.99212257590146.8492244692326633.99212257
590236.8492244692326633.99212257590326.8492244692326633.99212257
590416.8492244692326633.99212257590506.8492244692326633.99212257
590596.8492244692326633.99212257590686.8492244692326633.99212257
590776.8492244692326633.99212257590866.8492244692326633.99212257
590956.8492244692326633.99212257591046.8492244692326633.99212257
591136.8492244692326633.99212257591226.8492244692326633.99212257
591316.8492244692326633.99212257591406.8492244692326633.99212257
586636.8492244692326543.99212257586726.8492244692326543.99212257
586816.8492244692326543.99212257586906.8492244692326543.99212257
586996.8492244692326543.99212257587086.8492244692326543.99212257
587176.8492244692326543.99212257587266.8492244692326543.99212257
587356.8492244692326543.99212257587446.8492244692326543.99212257
587536.8492244692326543.99212257587626.8492244692326543.99212257
587716.8492244692326543.99212257587806.8492244692326543.99212257
587896.8492244692326543.99212257587986.8492244692326543.99212257
588076.8492244692326543.99212257588166.8492244692326543.99212257
588256.8492244692326543.99212257588346.8492244692326543.99212257
588436.8492244692326543.99212257588526.8492244692326543.99212257
588616.8492244692326543.99212257588706.8492244692326543.99212257
588796.8492244692326543.99212257588886.8492244692326543.99212257
588976.8492244692326543.99212257589066.8492244692326543.99212257
589156.8492244692326543.99212257589246.8492244692326543.99212257
589336.8492244692326543.99212257589426.8492244692326543.99212257
589516.8492244692326543.99212257589606.8492244692326543.99212257
589696.8492244692326543.99212257589786.8492244692326543.99212257
589876.8492244692326543.99212257589966.8492244692326543.99212257
590056.8492244692326543.99212257590146.8492244692326543.99212257
590236.8492244692326543.99212257590326.8492244692326543.99212257
590416.8492244692326543.99212257590506.8492244692326543.99212257
590596.8492244692326543.99212257590686.8492244692326543.99212257
590776.8492244692326543.99212257590866.8492244692326543.99212257
590956.8492244692326543.99212257591046.8492244692326543.99212257
591136.8492244692326543.99212257591226.8492244692326543.99212257
591316.8492244692326543.99212257591406.8492244692326543.99212257
586636.8492244692326453.99212257586726.8492244692326453.99212257
586816.8492244692326453.99212257586906.8492244692326453.99212257
586996.8492244692326453.99212257587086.8492244692326453.99212257
587176.8492244692326453.99212257587266.8492244692326453.99212257
587356.8492244692326453.99212257587446.8492244692326453.99212257
587536.8492244692326453.99212257587626.8492244692326453.99212257
587716.8492244692326453.99212257587806.8492244692326453.99212257
587896.8492244692326453.99212257587986.8492244692326453.99212257
588076.8492244692326453.99212257588166.8492244692326453.99212257
588256.8492244692326453.99212257588346.8492244692326453.99212257
588436.8492244692326453.99212257588526.8492244692326453.99212257
588616.8492244692326453.99212257588706.8492244692326453.99212257
588796.8492244692326453.99212257588886.8492244692326453.99212257
588976.8492244692326453.99212257589066.8492244692326453.99212257
589156.8492244692326453.99212257589246.8492244692326453.99212257
589336.8492244692326453.99212257589426.8492244692326453.99212257
589516.8492244692326453.99212257589606.8492244692326453.99212257
589696.8492244692326453.99212257589786.8492244692326453.99212257
589876.8492244692326453.99212257589966.8492244692326453.99212257
590056.8492244692326453.99212257590146.8492244692326453.99212257
590236.8492244692326453.99212257590326.8492244692326453.99212257
590416.8492244692326453.99212257590506.8492244692326453.99212257
590596.8492244692326453.99212257590686.8492244692326453.99212257
590776.8492244692326453.99212257590866.8492244692326453.99212257
590956.8492244692326453.99212257591046.8492244692326453.99212257
591136.8492244692326453.99212257591226.8492244692326453.99212257
591316.8492244692326453.99212257591406.8492244692326453.99212257
586636.8492244692326363.99212257586726.8492244692326363.99212257
586816.8492244692326363.99212257586906.8492244692326363.99212257
586996.8492244692326363.99212257587086.8492244692326363.99212257
587176.8492244692326363.99212257587266.8492244692326363.99212257
587356.8492244692326363.99212257587446.8492244692326363.99212257
587536.8492244692326363.99212257587626.8492244692326363.99212257
587716.8492244692326363.99212257587806.8492244692326363.99212257
587896.8492244692326363.99212257587986.8492244692326363.99212257
588076.8492244692326363.99212257588166.8492244692326363.99212257
588256.8492244692326363.99212257588346.8492244692326363.99212257
588436.8492244692326363.99212257588526.8492244692326363.99212257
588616.8492244692326363.99212257588706.8492244692326363.99212257
588796.8492244692326363.99212257588886.8492244692326363.99212257
588976.8492244692326363.99212257589066.8492244692326363.99212257
589156.8492244692326363.99212257589246.8492244692326363.99212257
589336.8492244692326363.99212257589426.8492244692326363.99212257
589516.8492244692326363.99212257589606.8492244692326363.99212257
589696.8492244692326363.99212257589786.8492244692326363.99212257
589876.8492244692326363.99212257589966.8492244692326363.99212257
590056.8492244692326363.99212257590146.8492244692326363.99212257
590236.8492244692326363.99212257590326.8492244692326363.99212257
590416.8492244692326363.99212257590506.8492244692326363.99212257
590596.8492244692326363.99212257590686.8492244692326363.99212257
590776.8492244692326363.99212257590866.8492244692326363.99212257
590956.8492244692326363.99212257591046.8492244692326363.99212257
591136.8492244692326363.99212257591226.8492244692326363.99212257
591316.8492244692326363.99212257591406.8492244692326363.99212257
586636.8492244692326273.99212257586726.8492244692326273.99212257
586816.8492244692326273.99212257586906.8492244692326273.99212257
586996.8492244692326273.99212257587086.8492244692326273.99212257
587176.8492244692326273.99212257587266.8492244692326273.99212257
587356.8492244692326273.99212257587446.8492244692326273.99212257
587536.8492244692326273.99212257587626.8492244692326273.99212257
587716.8492244692326273.99212257587806.8492244692326273.99212257
587896.8492244692326273.99212257587986.8492244692326273.99212257
588076.8492244692326273.99212257588166.8492244692326273.99212257
588256.8492244692326273.99212257588346.8492244692326273.99212257
588436.8492244692326273.99212257588526.8492244692326273.99212257
588616.8492244692326273.99212257588706.8492244692326273.99212257
588796.8492244692326273.99212257588886.8492244692326273.99212257
588976.8492244692326273.99212257589066.8492244692326273.99212257
589156.8492244692326273.99212257589246.8492244692326273.99212257
589336.8492244692326273.99212257589426.8492244692326273.99212257
589516.8492244692326273.99212257589606.8492244692326273.99212257
589696.8492244692326273.99212257589786.8492244692326273.99212257
589876.8492244692326273.99212257589966.8492244692326273.99212257
590056.8492244692326273.99212257590146.8492244692326273.99212257
590236.8492244692326273.99212257590326.8492244692326273.99212257
590416.8492244692326273.99212257590506.8492244692326273.99212257
590596.8492244692326273.99212257590686.8492244692326273.99212257
590776.8492244692326273.99212257590866.8492244692326273.99212257
590956.8492244692326273.99212257591046.8492244692326273.99212257
591136.8492244692326273.99212257591226.8492244692326273.99212257
591316.8492244692326273.99212257591406.8492244692326273.99212257
586636.8492244692326183.99212257586726.8492244692326183.99212257
586816.8492244692326183.99212257586906.8492244692326183.99212257
586996.8492244692326183.99212257587086.8492244692326183.99212257
587176.8492244692326183.99212257587266.8492244692326183.99212257
587356.8492244692326183.99212257587446.8492244692326183.99212257
587536.8492244692326183.99212257587626.8492244692326183.99212257
587716.8492244692326183.99212257587806.8492244692326183.99212257
587896.8492244692326183.99212257587986.8492244692326183.99212257
588076.8492244692326183.99212257588166.8492244692326183.99212257
588256.8492244692326183.99212257588346.8492244692326183.99212257
588436.8492244692326183.99212257588526.8492244692326183.99212257
588616.8492244692326183.99212257588706.8492244692326183.99212257
588796.8492244692326183.99212257588886.8492244692326183.99212257
588976.8492244692326183.99212257589066.8492244692326183.99212257
589156.8492244692326183.99212257589246.8492244692326183.99212257
589336.8492244692326183.99212257589426.8492244692326183.99212257
589516.8492244692326183.99212257589606.8492244692326183.99212257
589696.8492244692326183.99212257589786.8492244692326183.99212257
589876.8492244692326183.99212257589966.8492244692326183.99212257
590056.8492244692326183.99212257590146.8492244692326183.99212257
590236.8492244692326183.99212257590326.8492244692326183.99212257
590416.8492244692326183.99212257590506.8492244692326183.99212257
590596.8492244692326183.99212257590686.8492244692326183.99212257
590776.8492244692326183.99212257590866.8492244692326183.99212257
590956.8492244692326183.99212257591046.8492244692326183.99212257
591136.8492244692326183.99212257591226.8492244692326183.99212257
591316.8492244692326183.99212257591406.8492244692326183.99212257
586636.8492244692326093.99212257586726.8492244692326093.99212257
586816.8492244692326093.99212257586906.8492244692326093.99212257
586996.8492244692326093.99212257587086.8492244692326093.99212257
587176.8492244692326093.99212257587266.8492244692326093.99212257
587356.8492244692326093.99212257587446.8492244692326093.99212257
587536.8492244692326093.99212257587626.8492244692326093.99212257
587716.8492244692326093.99212257587806.8492244692326093.99212257
587896.8492244692326093.99212257587986.8492244692326093.99212257
588076.8492244692326093.99212257588166.8492244692326093.99212257
588256.8492244692326093.99212257588346.8492244692326093.99212257
588436.8492244692326093.99212257588526.8492244692326093.99212257
588616.8492244692326093.99212257588706.8492244692326093.99212257
588796.8492244692326093.99212257588886.8492244692326093.99212257
588976.8492244692326093.99212257589066.8492244692326093.99212257
589156.8492244692326093.99212257589246.8492244692326093.99212257
589336.8492244692326093.99212257589426.8492244692326093.99212257
589516.8492244692326093.99212257589606.8492244692326093.99212257
589696.8492244692326093.99212257589786.8492244692326093.99212257
589876.8492244692326093.99212257589966.8492244692326093.99212257
590056.8492244692326093.99212257590146.8492244692326093.99212257
590236.8492244692326093.99212257590326.8492244692326093.99212257
590416.8492244692326093.99212257590506.8492244692326093.99212257
590596.8492244692326093.99212257590686.8492244692326093.99212257
590776.8492244692326093.99212257590866.8492244692326093.99212257
590956.8492244692326093.99212257591046.8492244692326093.99212257
591136.8492244692326093.99212257591226.8492244692326093.99212257
591316.8492244692326093.99212257591406.8492244692326093.99212257
586636.8492244692326003.99212257586726.8492244692326003.99212257
586816.8492244692326003.99212257586906.8492244692326003.99212257
586996.8492244692326003.99212257587086.8492244692326003.99212257
587176.8492244692326003.99212257587266.8492244692326003.99212257
587356.8492244692326003.99212257587446.8492244692326003.99212257
587536.8492244692326003.99212257587626.8492244692326003.99212257
587716.8492244692326003.99212257587806.8492244692326003.99212257
587896.8492244692326003.99212257587986.8492244692326003.99212257
588076.8492244692326003.99212257588166.8492244692326003.99212257
588256.8492244692326003.99212257588346.8492244692326003.99212257
588436.8492244692326003.99212257588526.8492244692326003.99212257
588616.8492244692326003.99212257588706.8492244692326003.99212257
588796.8492244692326003.99212257588886.8492244692326003.99212257
588976.8492244692326003.99212257589066.8492244692326003.99212257
589156.8492244692326003.99212257589246.8492244692326003.99212257
589336.8492244692326003.99212257589426.8492244692326003.99212257
589516.8492244692326003.99212257589606.8492244692326003.99212257
589696.8492244692326003.99212257589786.8492244692326003.99212257
589876.8492244692326003.99212257589966.8492244692326003.99212257
590056.8492244692326003.99212257590146.8492244692326003.99212257
590236.8492244692326003.99212257590326.8492244692326003.99212257
590416.8492244692326003.99212257590506.8492244692326003.99212257
590596.8492244692326003.99212257590686.8492244692326003.99212257
590776.8492244692326003.99212257590866.8492244692326003.99212257
590956.8492244692326003.99212257591046.8492244692326003.99212257
591136.8492244692326003.99212257591226.8492244692326003.99212257
591316.8492244692326003.99212257591406.8492244692326003.99212257
586636.8492244692325913.99212257586726.8492244692325913.99212257
586816.8492244692325913.99212257586906.8492244692325913.99212257
586996.8492244692325913.99212257587086.8492244692325913.99212257
587176.8492244692325913.99212257587266.8492244692325913.99212257
587356.8492244692325913.99212257587446.8492244692325913.99212257
587536.8492244692325913.99212257587626.8492244692325913.99212257
587716.8492244692325913.99212257587806.8492244692325913.99212257
587896.8492244692325913.99212257587986.8492244692325913.99212257
588076.8492244692325913.99212257588166.8492244692325913.99212257
588256.8492244692325913.99212257588346.8492244692325913.99212257
588436.8492244692325913.99212257588526.8492244692325913.99212257
588616.8492244692325913.99212257588706.8492244692325913.99212257
588796.8492244692325913.99212257588886.8492244692325913.99212257
588976.8492244692325913.99212257589066.8492244692325913.99212257
589156.8492244692325913.99212257589246.8492244692325913.99212257
589336.8492244692325913.99212257589426.8492244692325913.99212257
589516.8492244692325913.99212257589606.8492244692325913.99212257
589696.8492244692325913.99212257589786.8492244692325913.99212257
589876.8492244692325913.99212257589966.8492244692325913.99212257
590056.8492244692325913.99212257590146.8492244692325913.99212257
590236.8492244692325913.99212257590326.8492244692325913.99212257
590416.8492244692325913.99212257590506.8492244692325913.99212257
590596.8492244692325913.99212257590686.8492244692325913.99212257
590776.8492244692325913.99212257590866.8492244692325913.99212257
590956.8492244692325913.99212257591046.8492244692325913.99212257
591136.8492244692325913.99212257591226.8492244692325913.99212257
591316.8492244692325913.99212257591406.8492244692325913.99212257
586636.8492244692325823.99212257586726.8492244692325823.99212257
586816.8492244692325823.99212257586906.8492244692325823.99212257
586996.8492244692325823.99212257587086.8492244692325823.99212257
587176.8492244692325823.99212257587266.8492244692325823.99212257
587356.8492244692325823.99212257587446.8492244692325823.99212257
587536.8492244692325823.99212257587626.8492244692325823.99212257
587716.8492244692325823.99212257587806.8492244692325823.99212257
587896.8492244692325823.99212257587986.8492244692325823.99212257
588076.8492244692325823.99212257588166.8492244692325823.99212257
588256.8492244692325823.99212257588346.8492244692325823.99212257
588436.8492244692325823.99212257588526.8492244692325823.99212257
588616.8492244692325823.99212257588706.8492244692325823.99212257
588796.8492244692325823.99212257588886.8492244692325823.99212257
588976.8492244692325823.99212257589066.8492244692325823.99212257
589156.8492244692325823.99212257589246.8492244692325823.99212257
589336.8492244692325823.99212257589426.8492244692325823.99212257
589516.8492244692325823.99212257589606.8492244692325823.99212257
589696.8492244692325823.99212257589786.8492244692325823.99212257
589876.8492244692325823.99212257589966.8492244692325823.99212257
590056.8492244692325823.99212257590146.8492244692325823.99212257
590236.8492244692325823.99212257590326.8492244692325823.99212257
590416.8492244692325823.99212257590506.8492244692325823.99212257
590596.8492244692325823.99212257590686.8492244692325823.99212257
590776.8492244692325823.99212257590866.8492244692325823.99212257
590956.8492244692325823.99212257591046.8492244692325823.99212257
591136.8492244692325823.99212257591226.8492244692325823.99212257
591316.8492244692325823.99212257591406.8492244692325823.99212257
586636.8492244692325733.99212257586726.8492244692325733.99212257
586816.8492244692325733.99212257586906.8492244692325733.99212257
586996.8492244692325733.99212257587086.8492244692325733.99212257
587176.8492244692325733.99212257587266.8492244692325733.99212257
587356.8492244692325733.99212257587446.8492244692325733.99212257
587536.8492244692325733.99212257587626.8492244692325733.99212257
587716.8492244692325733.99212257587806.8492244692325733.99212257
587896.8492244692325733.99212257587986.8492244692325733.99212257
588076.8492244692325733.99212257588166.8492244692325733.99212257
588256.8492244692325733.99212257588346.8492244692325733.99212257
588436.8492244692325733.99212257588526.8492244692325733.99212257
588616.8492244692325733.99212257588706.8492244692325733.99212257
588796.8492244692325733.99212257588886.8492244692325733.99212257
588976.8492244692325733.99212257589066.8492244692325733.99212257
589156.8492244692325733.99212257589246.8492244692325733.99212257
589336.8492244692325733.99212257589426.8492244692325733.99212257
589516.8492244692325733.99212257589606.8492244692325733.99212257
589696.8492244692325733.99212257589786.8492244692325733.99212257
589876.8492244692325733.99212257589966.8492244692325733.99212257
590056.8492244692325733.99212257590146.8492244692325733.99212257
590236.8492244692325733.99212257590326.8492244692325733.99212257
590416.8492244692325733.99212257590506.8492244692325733.99212257
590596.8492244692325733.99212257590686.8492244692325733.99212257
590776.8492244692325733.99212257590866.8492244692325733.99212257
590956.8492244692325733.99212257591046.8492244692325733.99212257
591136.8492244692325733.99212257591226.8492244692325733.99212257
591316.8492244692325733.99212257591406.8492244692325733.99212257
586636.8492244692325643.99212257586726.8492244692325643.99212257
586816.8492244692325643.99212257586906.8492244692325643.99212257
586996.8492244692325643.99212257587086.8492244692325643.99212257
587176.8492244692325643.99212257587266.8492244692325643.99212257
587356.8492244692325643.99212257587446.8492244692325643.99212257
587536.8492244692325643.99212257587626.8492244692325643.99212257
587716.8492244692325643.99212257587806.8492244692325643.99212257
587896.8492244692325643.99212257587986.8492244692325643.99212257
588076.8492244692325643.99212257588166.8492244692325643.99212257
588256.8492244692325643.99212257588346.8492244692325643.99212257
588436.8492244692325643.99212257588526.8492244692325643.99212257
588616.8492244692325643.99212257588706.8492244692325643.99212257
588796.8492244692325643.99212257588886.8492244692325643.99212257
588976.8492244692325643.99212257589066.8492244692325643.99212257
589156.8492244692325643.99212257589246.8492244692325643.99212257
589336.8492244692325643.99212257589426.8492244692325643.99212257
589516.8492244692325643.99212257589606.8492244692325643.99212257
589696.8492244692325643.99212257589786.8492244692325643.99212257
589876.8492244692325643.99212257589966.8492244692325643.99212257
590056.8492244692325643.99212257590146.8492244692325643.99212257
590236.8492244692325643.99212257590326.8492244692325643.99212257
590416.8492244692325643.99212257590506.8492244692325643.99212257
590596.8492244692325643.99212257590686.8492244692325643.99212257
590776.8492244692325643.99212257590866.8492244692325643.99212257
590956.8492244692325643.99212257591046.8492244692325643.99212257
591136.8492244692325643.99212257591226.8492244692325643.99212257
591316.8492244692325643.99212257591406.8492244692325643.99212257
586636.8492244692325553.99212257586726.8492244692325553.99212257
586816.8492244692325553.99212257586906.8492244692325553.99212257
586996.8492244692325553.99212257587086.8492244692325553.99212257
587176.8492244692325553.99212257587266.8492244692325553.99212257
587356.8492244692325553.99212257587446.8492244692325553.99212257
587536.8492244692325553.99212257587626.8492244692325553.99212257
587716.8492244692325553.99212257587806.8492244692325553.99212257
587896.8492244692325553.99212257587986.8492244692325553.99212257
588076.8492244692325553.99212257588166.8492244692325553.99212257
588256.8492244692325553.99212257588346.8492244692325553.99212257
588436.8492244692325553.99212257588526.8492244692325553.99212257
588616.8492244692325553.99212257588706.8492244692325553.99212257