Geom Title=Hello 2D Area
Program Version=5.06
Viewing Rectangle= 588189.358717194 , 588395.254579585 , 2327667.50167585 , 2327565.5535122 

Storage Area=Hello 2D Area   ,588292.2420691,2327616.518488
Storage Area Surface Line= 5 
588198.9291495512327570.18751964                
 588198.717620032327662.86766841                
 588385.707392232327662.63521839                
588385.8956767492327570.37580416                
588198.9291495512327570.18751964                
Storage Area Type= 1 
Storage Area Area=
Storage Area Min Elev=
Storage Area Is2D=-1
Storage Area Point Generation Data=,,5,5
Storage Area 2D Points= 666 
 588201.217620032327660.36766841 588206.217620032327660.36766841
 588211.217620032327660.36766841 588216.217620032327660.36766841
 588221.217620032327660.36766841 588226.217620032327660.36766841
 588231.217620032327660.36766841 588236.217620032327660.36766841
 588241.217620032327660.36766841 588246.217620032327660.36766841
 588251.217620032327660.36766841 588256.217620032327660.36766841
 588261.217620032327660.36766841 588266.217620032327660.36766841
 588271.217620032327660.36766841 588276.217620032327660.36766841
 588281.217620032327660.36766841 588286.217620032327660.36766841
 588291.217620032327660.36766841 588296.217620032327660.36766841
 588301.217620032327660.36766841 588306.217620032327660.36766841
 588311.217620032327660.36766841 588316.217620032327660.36766841
 588321.217620032327660.36766841 588326.217620032327660.36766841
 588331.217620032327660.36766841 588336.217620032327660.36766841
 588341.217620032327660.36766841 588346.217620032327660.36766841
 588351.217620032327660.36766841 588356.217620032327660.36766841
 588361.217620032327660.36766841 588366.217620032327660.36766841
 588371.217620032327660.36766841 588376.217620032327660.36766841
 588381.217620032327660.36766841 588201.217620032327655.36766841
 588206.217620032327655.36766841 588211.217620032327655.36766841
 588216.217620032327655.36766841 588221.217620032327655.36766841
 588226.217620032327655.36766841 588231.217620032327655.36766841
 588236.217620032327655.36766841 588241.217620032327655.36766841
 588246.217620032327655.36766841 588251.217620032327655.36766841
 588256.217620032327655.36766841 588261.217620032327655.36766841
 588266.217620032327655.36766841 588271.217620032327655.36766841
 588276.217620032327655.36766841 588281.217620032327655.36766841
 588286.217620032327655.36766841 588291.217620032327655.36766841
 588296.217620032327655.36766841 588301.217620032327655.36766841
 588306.217620032327655.36766841 588311.217620032327655.36766841
 588316.217620032327655.36766841 588321.217620032327655.36766841
 588326.217620032327655.36766841 588331.217620032327655.36766841
 588336.217620032327655.36766841 588341.217620032327655.36766841
 588346.217620032327655.36766841 588351.217620032327655.36766841
 588356.217620032327655.36766841 588361.217620032327655.36766841
 588366.217620032327655.36766841 588371.217620032327655.36766841
 588376.217620032327655.36766841 588381.217620032327655.36766841
 588201.217620032327650.36766841 588206.217620032327650.36766841
 588211.217620032327650.36766841 588216.217620032327650.36766841
 588221.217620032327650.36766841 588226.217620032327650.36766841
 588231.217620032327650.36766841 588236.217620032327650.36766841
 588241.217620032327650.36766841 588246.217620032327650.36766841
 588251.217620032327650.36766841 588256.217620032327650.36766841
 588261.217620032327650.36766841 588266.217620032327650.36766841
 588271.217620032327650.36766841 588276.217620032327650.36766841
 588281.217620032327650.36766841 588286.217620032327650.36766841
 588291.217620032327650.36766841 588296.217620032327650.36766841
 588301.217620032327650.36766841 588306.217620032327650.36766841
 588311.217620032327650.36766841 588316.217620032327650.36766841
 588321.217620032327650.36766841 588326.217620032327650.36766841
 588331.217620032327650.36766841 588336.217620032327650.36766841
 588341.217620032327650.36766841 588346.217620032327650.36766841
 588351.217620032327650.36766841 588356.217620032327650.36766841
 588361.217620032327650.36766841 588366.217620032327650.36766841
 588371.217620032327650.36766841 588376.217620032327650.36766841
 588381.217620032327650.36766841 588201.217620032327645.36766841
 588206.217620032327645.36766841 588211.217620032327645.36766841
 588216.217620032327645.36766841 588221.217620032327645.36766841
 588226.217620032327645.36766841 588231.217620032327645.36766841
 588236.217620032327645.36766841 588241.217620032327645.36766841
 588246.217620032327645.36766841 588251.217620032327645.36766841
 588256.217620032327645.36766841 588261.217620032327645.36766841
 588266.217620032327645.36766841 588271.217620032327645.36766841
 588276.217620032327645.36766841 588281.217620032327645.36766841
 588286.217620032327645.36766841 588291.217620032327645.36766841
 588296.217620032327645.36766841 588301.217620032327645.36766841
 588306.217620032327645.36766841 588311.217620032327645.36766841
 588316.217620032327645.36766841 588321.217620032327645.36766841
 588326.217620032327645.36766841 588331.217620032327645.36766841
 588336.217620032327645.36766841 588341.217620032327645.36766841
 588346.217620032327645.36766841 588351.217620032327645.36766841
 588356.217620032327645.36766841 588361.217620032327645.36766841
 588366.217620032327645.36766841 588371.217620032327645.36766841
 588376.217620032327645.36766841 588381.217620032327645.36766841
 588201.217620032327640.36766841 588206.217620032327640.36766841
 588211.217620032327640.36766841 588216.217620032327640.36766841
 588221.217620032327640.36766841 588226.217620032327640.36766841
 588231.217620032327640.36766841 588236.217620032327640.36766841
 588241.217620032327640.36766841 588246.217620032327640.36766841
 588251.217620032327640.36766841 588256.217620032327640.36766841
 588261.217620032327640.36766841 588266.217620032327640.36766841
 588271.217620032327640.36766841 588276.217620032327640.36766841
 588281.217620032327640.36766841 588286.217620032327640.36766841
 588291.217620032327640.36766841 588296.217620032327640.36766841
 588301.217620032327640.36766841 588306.217620032327640.36766841
 588311.217620032327640.36766841 588316.217620032327640.36766841
 588321.217620032327640.36766841 588326.217620032327640.36766841
 588331.217620032327640.36766841 588336.217620032327640.36766841
 588341.217620032327640.36766841 588346.217620032327640.36766841
 588351.217620032327640.36766841 588356.217620032327640.36766841
 588361.217620032327640.36766841 588366.217620032327640.36766841
 588371.217620032327640.36766841 588376.217620032327640.36766841
 588381.217620032327640.36766841 588201.217620032327635.36766841
 588206.217620032327635.36766841 588211.217620032327635.36766841
 588216.217620032327635.36766841 588221.217620032327635.36766841
 588226.217620032327635.36766841 588231.217620032327635.36766841
 588236.217620032327635.36766841 588241.217620032327635.36766841
 588246.217620032327635.36766841 588251.217620032327635.36766841
 588256.217620032327635.36766841 588261.217620032327635.36766841
 588266.217620032327635.36766841 588271.217620032327635.36766841
 588276.217620032327635.36766841 588281.217620032327635.36766841
 588286.217620032327635.36766841 588291.217620032327635.36766841
 588296.217620032327635.36766841 588301.217620032327635.36766841
 588306.217620032327635.36766841 588311.217620032327635.36766841
 588316.217620032327635.36766841 588321.217620032327635.36766841
 588326.217620032327635.36766841 588331.217620032327635.36766841
 588336.217620032327635.36766841 588341.217620032327635.36766841
 588346.217620032327635.36766841 588351.217620032327635.36766841
 588356.217620032327635.36766841 588361.217620032327635.36766841
 588366.217620032327635.36766841 588371.217620032327635.36766841
 588376.217620032327635.36766841 588381.217620032327635.36766841
 588201.217620032327630.36766841 588206.217620032327630.36766841
 588211.217620032327630.36766841 588216.217620032327630.36766841
 588221.217620032327630.36766841 588226.217620032327630.36766841
 588231.217620032327630.36766841 588236.217620032327630.36766841
 588241.217620032327630.36766841 588246.217620032327630.36766841
 588251.217620032327630.36766841 588256.217620032327630.36766841
 588261.217620032327630.36766841 588266.217620032327630.36766841
 588271.217620032327630.36766841 588276.217620032327630.36766841
 588281.217620032327630.36766841 588286.217620032327630.36766841
 588291.217620032327630.36766841 588296.217620032327630.36766841
 588301.217620032327630.36766841 588306.217620032327630.36766841
 588311.217620032327630.36766841 588316.217620032327630.36766841
 588321.217620032327630.36766841 588326.217620032327630.36766841
 588331.217620032327630.36766841 588336.217620032327630.36766841
 588341.217620032327630.36766841 588346.217620032327630.36766841
 588351.217620032327630.36766841 588356.217620032327630.36766841
 588361.217620032327630.36766841 588366.217620032327630.36766841
 588371.217620032327630.36766841 588376.217620032327630.36766841
 588381.217620032327630.36766841 588201.217620032327625.36766841
 588206.217620032327625.36766841 588211.217620032327625.36766841
 588216.217620032327625.36766841 588221.217620032327625.36766841
 588226.217620032327625.36766841 588231.217620032327625.36766841
 588236.217620032327625.36766841 588241.217620032327625.36766841
 588246.217620032327625.36766841 588251.217620032327625.36766841
 588256.217620032327625.36766841 588261.217620032327625.36766841
 588266.217620032327625.36766841 588271.217620032327625.36766841
 588276.217620032327625.36766841 588281.217620032327625.36766841
 588286.217620032327625.36766841 588291.217620032327625.36766841
 588296.217620032327625.36766841 588301.217620032327625.36766841
 588306.217620032327625.36766841 588311.217620032327625.36766841
 588316.217620032327625.36766841 588321.217620032327625.36766841
 588326.217620032327625.36766841 588331.217620032327625.36766841
 588336.217620032327625.36766841 588341.217620032327625.36766841
 588346.217620032327625.36766841 588351.217620032327625.36766841
 588356.217620032327625.36766841 588361.217620032327625.36766841
 588366.217620032327625.36766841 588371.217620032327625.36766841
 588376.217620032327625.36766841 588381.217620032327625.36766841
 588201.217620032327620.36766841 588206.217620032327620.36766841
 588211.217620032327620.36766841 588216.217620032327620.36766841
 588221.217620032327620.36766841 588226.217620032327620.36766841
 588231.217620032327620.36766841 588236.217620032327620.36766841
 588241.217620032327620.36766841 588246.217620032327620.36766841
 588251.217620032327620.36766841 588256.217620032327620.36766841
 588261.217620032327620.36766841 588266.217620032327620.36766841
 588271.217620032327620.36766841 588276.217620032327620.36766841
 588281.217620032327620.36766841 588286.217620032327620.36766841
 588291.217620032327620.36766841 588296.217620032327620.36766841
 588301.217620032327620.36766841 588306.217620032327620.36766841
 588311.217620032327620.36766841 588316.217620032327620.36766841
 588321.217620032327620.36766841 588326.217620032327620.36766841
 588331.217620032327620.36766841 588336.217620032327620.36766841
 588341.217620032327620.36766841 588346.217620032327620.36766841
 588351.217620032327620.36766841 588356.217620032327620.36766841
 588361.217620032327620.36766841 588366.217620032327620.36766841
 588371.217620032327620.36766841 588376.217620032327620.36766841
 588381.217620032327620.36766841 588201.217620032327615.36766841
 588206.217620032327615.36766841 588211.217620032327615.36766841
 588216.217620032327615.36766841 588221.217620032327615.36766841
 588226.217620032327615.36766841 588231.217620032327615.36766841
 588236.217620032327615.36766841 588241.217620032327615.36766841
 588246.217620032327615.36766841 588251.217620032327615.36766841
 588256.217620032327615.36766841 588261.217620032327615.36766841
 588266.217620032327615.36766841 588271.217620032327615.36766841
 588276.217620032327615.36766841 588281.217620032327615.36766841
 588286.217620032327615.36766841 588291.217620032327615.36766841
 588296.217620032327615.36766841 588301.217620032327615.36766841
 588306.217620032327615.36766841 588311.217620032327615.36766841
 588316.217620032327615.36766841 588321.217620032327615.36766841
 588326.217620032327615.36766841 588331.217620032327615.36766841
 588336.217620032327615.36766841 588341.217620032327615.36766841
 588346.217620032327615.36766841 588351.217620032327615.36766841
 588356.217620032327615.36766841 588361.217620032327615.36766841
 588366.217620032327615.36766841 588371.217620032327615.36766841
 588376.217620032327615.36766841 588381.217620032327615.36766841
 588201.217620032327610.36766841 588206.217620032327610.36766841
 588211.217620032327610.36766841 588216.217620032327610.36766841
 588221.217620032327610.36766841 588226.217620032327610.36766841
 588231.217620032327610.36766841 588236.217620032327610.36766841
 588241.217620032327610.36766841 588246.217620032327610.36766841
 588251.217620032327610.36766841 588256.217620032327610.36766841
 588261.217620032327610.36766841 588266.217620032327610.36766841
 588271.217620032327610.36766841 588276.217620032327610.36766841
 588281.217620032327610.36766841 588286.217620032327610.36766841
 588291.217620032327610.36766841 588296.217620032327610.36766841
 588301.217620032327610.36766841 588306.217620032327610.36766841
 588311.217620032327610.36766841 588316.217620032327610.36766841
 588321.217620032327610.36766841 588326.217620032327610.36766841
 588331.217620032327610.36766841 588336.217620032327610.36766841
 588341.217620032327610.36766841 588346.217620032327610.36766841
 588351.217620032327610.36766841 588356.217620032327610.36766841
 588361.217620032327610.36766841 588366.217620032327610.36766841
 588371.217620032327610.36766841 588376.217620032327610.36766841
 588381.217620032327610.36766841 588201.217620032327605.36766841
 588206.217620032327605.36766841 588211.217620032327605.36766841
 588216.217620032327605.36766841 588221.217620032327605.36766841
 588226.217620032327605.36766841 588231.217620032327605.36766841
 588236.217620032327605.36766841 588241.217620032327605.36766841
 588246.217620032327605.36766841 588251.217620032327605.36766841
 588256.217620032327605.36766841 588261.217620032327605.36766841
 588266.217620032327605.36766841 588271.217620032327605.36766841
 588276.217620032327605.36766841 588281.217620032327605.36766841
 588286.217620032327605.36766841 588291.217620032327605.36766841
 588296.217620032327605.36766841 588301.217620032327605.36766841
 588306.217620032327605.36766841 588311.217620032327605.36766841
 588316.217620032327605.36766841 588321.217620032327605.36766841
 588326.217620032327605.36766841 588331.217620032327605.36766841
 588336.217620032327605.36766841 588341.217620032327605.36766841
 588346.217620032327605.36766841 588351.217620032327605.36766841
 588356.217620032327605.36766841 588361.217620032327605.36766841
 588366.217620032327605.36766841 588371.217620032327605.36766841
 588376.217620032327605.36766841 588381.217620032327605.36766841
 588201.217620032327600.36766841 588206.217620032327600.36766841
 588211.217620032327600.36766841 588216.217620032327600.36766841
 588221.217620032327600.36766841 588226.217620032327600.36766841
 588231.217620032327600.36766841 588236.217620032327600.36766841
 588241.217620032327600.36766841 588246.217620032327600.36766841
 588251.217620032327600.36766841 588256.217620032327600.36766841
 588261.217620032327600.36766841 588266.217620032327600.36766841
 588271.217620032327600.36766841 588276.217620032327600.36766841
 588281.217620032327600.36766841 588286.217620032327600.36766841
 588291.217620032327600.36766841 588296.217620032327600.36766841
 588301.217620032327600.36766841 588306.217620032327600.36766841
 588311.217620032327600.36766841 588316.217620032327600.36766841
 588321.217620032327600.36766841 588326.217620032327600.36766841
 588331.217620032327600.36766841 588336.217620032327600.36766841
 588341.217620032327600.36766841 588346.217620032327600.36766841
 588351.217620032327600.36766841 588356.217620032327600.36766841
 588361.217620032327600.36766841 588366.217620032327600.36766841
 588371.217620032327600.36766841 588376.217620032327600.36766841
 588381.217620032327600.36766841 588201.217620032327595.36766841
 588206.217620032327595.36766841 588211.217620032327595.36766841
 588216.217620032327595.36766841 588221.217620032327595.36766841
 588226.217620032327595.36766841 588231.217620032327595.36766841
 588236.217620032327595.36766841 588241.217620032327595.36766841
 588246.217620032327595.36766841 588251.217620032327595.36766841
 588256.217620032327595.36766841 588261.217620032327595.36766841
 588266.217620032327595.36766841 588271.217620032327595.36766841
 588276.217620032327595.36766841 588281.217620032327595.36766841
 588286.217620032327595.36766841 588291.217620032327595.36766841
 588296.217620032327595.36766841 588301.217620032327595.36766841
 588306.217620032327595.36766841 588311.217620032327595.36766841
 588316.217620032327595.36766841 588321.217620032327595.36766841
 588326.217620032327595.36766841 588331.217620032327595.36766841
 588336.217620032327595.36766841 588341.217620032327595.36766841
 588346.217620032327595.36766841 588351.217620032327595.36766841
 588356.217620032327595.36766841 588361.217620032327595.36766841
 588366.217620032327595.36766841 588371.217620032327595.36766841
 588376.217620032327595.36766841 588381.217620032327595.36766841
 588201.217620032327590.36766841 588206.217620032327590.36766841
 588211.217620032327590.36766841 588216.217620032327590.36766841
 588221.217620032327590.36766841 588226.217620032327590.36766841
 588231.217620032327590.36766841 588236.217620032327590.36766841
 588241.217620032327590.36766841 588246.217620032327590.36766841
 588251.217620032327590.36766841 588256.217620032327590.36766841
 588261.217620032327590.36766841 588266.217620032327590.36766841
 588271.217620032327590.36766841 588276.217620032327590.36766841
 588281.217620032327590.36766841 588286.217620032327590.36766841
 588291.217620032327590.36766841 588296.217620032327590.36766841
 588301.217620032327590.36766841 588306.217620032327590.36766841
 588311.217620032327590.36766841 588316.217620032327590.36766841
 588321.217620032327590.36766841 588326.217620032327590.36766841
 588331.217620032327590.36766841 588336.217620032327590.36766841
 588341.217620032327590.36766841 588346.217620032327590.36766841
 588351.217620032327590.36766841 588356.217620032327590.36766841
 588361.217620032327590.36766841 588366.217620032327590.36766841
 588371.217620032327590.36766841 588376.217620032327590.36766841
 588381.217620032327590.36766841 588201.217620032327585.36766841
 588206.217620032327585.36766841 588211.217620032327585.36766841
 588216.217620032327585.36766841 588221.217620032327585.36766841
 588226.217620032327585.36766841 588231.217620032327585.36766841
 588236.217620032327585.36766841 588241.217620032327585.36766841
 588246.217620032327585.36766841 588251.217620032327585.36766841
 588256.217620032327585.36766841 588261.217620032327585.36766841
 588266.217620032327585.36766841 588271.217620032327585.36766841
 588276.217620032327585.36766841 588281.217620032327585.36766841
 588286.217620032327585.36766841 588291.217620032327585.36766841
 588296.217620032327585.36766841 588301.217620032327585.36766841
 588306.217620032327585.36766841 588311.217620032327585.36766841
 588316.217620032327585.36766841 588321.217620032327585.36766841
 588326.217620032327585.36766841 588331.217620032327585.36766841
 588336.217620032327585.36766841 588341.217620032327585.36766841
 588346.217620032327585.36766841 588351.217620032327585.36766841
 588356.217620032327585.36766841 588361.217620032327585.36766841
 588366.217620032327585.36766841 588371.217620032327585.36766841
 588376.217620032327585.36766841 588381.217620032327585.36766841
 588201.217620032327580.36766841 588206.217620032327580.36766841
 588211.217620032327580.36766841 588216.217620032327580.36766841
 588221.217620032327580.36766841 588226.217620032327580.36766841
 588231.217620032327580.36766841 588236.217620032327580.36766841
 588241.217620032327580.36766841 588246.217620032327580.36766841
 588251.217620032327580.36766841 588256.217620032327580.36766841
 588261.217620032327580.36766841 588266.217620032327580.36766841
 588271.217620032327580.36766841 588276.217620032327580.36766841
 588281.217620032327580.36766841 588286.217620032327580.36766841
 588291.217620032327580.36766841 588296.217620032327580.36766841
 588301.217620032327580.36766841 588306.217620032327580.36766841
 588311.217620032327580.36766841 588316.217620032327580.36766841
 588321.217620032327580.36766841 588326.217620032327580.36766841
 588331.217620032327580.36766841 588336.217620032327580.36766841
 588341.217620032327580.36766841 588346.217620032327580.36766841
 588351.217620032327580.36766841 588356.217620032327580.36766841
 588361.217620032327580.36766841 588366.217620032327580.36766841
 588371.217620032327580.36766841 588376.217620032327580.36766841
 588381.217620032327580.36766841 588201.217620032327575.36766841
 588206.217620032327575.36766841 588211.217620032327575.36766841
 588216.217620032327575.36766841 588221.217620032327575.36766841
 588226.217620032327575.36766841 588231.217620032327575.36766841
 588236.217620032327575.36766841 588241.217620032327575.36766841
 588246.217620032327575.36766841 588251.217620032327575.36766841
 588256.217620032327575.36766841 588261.217620032327575.36766841
 588266.217620032327575.36766841 588271.217620032327575.36766841
 588276.217620032327575.36766841 588281.217620032327575.36766841
 588286.217620032327575.36766841 588291.217620032327575.36766841
 588296.217620032327575.36766841 588301.217620032327575.36766841
 588306.217620032327575.36766841 588311.217620032327575.36766841
 588316.217620032327575.36766841 588321.217620032327575.36766841
 588326.217620032327575.36766841 588331.217620032327575.36766841
 588336.217620032327575.36766841 588341.217620032327575.36766841
 588346.217620032327575.36766841 588351.217620032327575.36766841
 588356.217620032327575.36766841 588361.217620032327575.36766841
 588366.217620032327575.36766841 588371.217620032327575.36766841
 588376.217620032327575.36766841 588381.217620032327575.36766841
Storage Area 2D PointsPerimeterTime=15Jul2019 02:52:02
Storage Area Mannings=0.06
2D Cell Volume Filter Tolerance=0.003
2D Cell Minimum Area Fraction=0.01
2D Face Profile Filter Tolerance=0.003
2D Face Area Elevation Profile Filter Tolerance=0.003
2D Face Area Elevation Conveyance Ratio=0.02
2D Face Area Laminar Depth=0.06

BC Line Name=INFLOW                          
BC Line Storage Area=Hello 2D Area   
BC Line Start Position= 588309.433898412 , 2327663.08452183 
BC Line Middle Position= 588321.208950883 , 2327663.08452183 
BC Line End Position= 588332.984003353 , 2327663.08452183 
BC Line Arc= 2 
588309.4338984122327663.08452183588332.9840033532327663.08452183
BC Line Text Position= 588321.15892563 , 2327662.21818672 
BC Line Name=OUTFLOW                         
BC Line Storage Area=Hello 2D Area   
BC Line Start Position= 588385.450341821 , 2327570.04109182 
BC Line Middle Position= 588369.96244865 , 2327570.04246093 
BC Line End Position= 588354.474555479 , 2327570.04383004 
BC Line Arc= 2 
588385.4503418212327570.04109182588354.4745554792327570.04383004
BC Line Text Position= 588369.951810578 , 2327570.63161875 
LCMann Time=Dec/30/1899 00:00:00
LCMann Region Time=Dec/30/1899 00:00:00
LCMann Table=0
Chan Stop Cuts=-1 



Use User Specified Reach Order=0
GIS Ratio Cuts To Invert=-1
GIS Limit At Bridges=0
Composite Channel Slope=5
