Geom Title=Bathymetry 2
Program Version=5.06
Viewing Rectangle= 587254.467317739 , 589663.854445872 , 2329393.68948957 , 2325776.829648 

River Reach=River 1         ,Reach 1         
Reach XY= 7 
587500.696084742 2329229.2867695587989.5725000742328109.60207632
588236.569604654 2327798.5322365588538.9998183482327462.49866573
588905.5818955522326820.98003062589171.353901524 2326439.1237002
589492.1132190782325993.11550627
Rch Text X Y=587998.5503683,2328420.2439537
Reverse River Text= 0 

Type RM Length L Ch R = 1 ,12509   ,261.8,261.8,261.8
XS GIS Cut Line=2
587693.0011754342329218.53896776587363.9849144732329217.35545603
Node Last Edited Time=Jul/23/2019 14:15:48
#Sta/Elev= 7 
       0   11.87     9.9   11.87      10       5     150       0     320       5
   324.26.605334     329    6.92
#Mann= 3 , 0 , 0 
       0               0     9.9               0   324.2               0
Bank Sta=9.9,324.2
XS Rating Curve= 0 ,0
XS HTab Starting El and Incr=5.15,0.3, 22 
XS HTab Horizontal Distribution= 5 , 5 , 5 
Exp/Cntr(USF)=0,0
Exp/Cntr=0.3,0.1

Type RM Length L Ch R = 1 ,11650   ,461.9,461.9,461.9
XS GIS Cut Line=2
587776.3614681922329046.61985357587489.3277017412328927.84726056
Node Last Edited Time=Jul/23/2019 14:16:15
#Sta/Elev= 9 
       0   10.53    22.4      10    24.19.939701      25       5     150       0
     290       5   293.711.29667   304.5   11.27   310.6   11.34
#Mann= 3 , 0 , 0 
       0               0    24.1               0   293.7               0
Bank Sta=24.1,293.7
XS Rating Curve= 0 ,0
XS HTab Starting El and Incr=5.15,0.3, 21 
XS HTab Horizontal Distribution= 5 , 5 , 5 
Exp/Cntr(USF)=0,0
Exp/Cntr=0.3,0.1

Type RM Length L Ch R = 1 ,10134   ,606.1,606.1,606.1
XS GIS Cut Line=2
587969.3669318412328633.39020704587630.3701559452328479.97560773
Node Last Edited Time=Jul/23/2019 14:17:23
#Sta/Elev= 10 
       0   13.83    23.113.52056      25       5     170       0     355       5
   356.510.18664   359.7    9.86   366.4    9.27   369.4    9.13   372.1    9.13
#Mann= 3 , 0 , 0 
       0               0    23.1               0   356.5               0
Bank Sta=23.1,356.5
XS Rating Curve= 0 ,0
XS HTab Starting El and Incr=5.15,0.3, 29 
XS HTab Horizontal Distribution= 5 , 5 , 5 
Exp/Cntr(USF)=0,0
Exp/Cntr=0.3,0.1

Type RM Length L Ch R = 1 ,8145    ,476.9,476.9,476.9
XS GIS Cut Line=2
 588229.181979062328128.60668673587895.1340612072327898.48478777
Node Last Edited Time=Jul/23/2019 14:18:42
#Sta/Elev= 11 
       0    9.62    15.2       9    21.38.675938      25       5     170       0
     385       5   385.716.75821   388.3   17.09   393.4   17.87   400.7   18.33
   405.6   18.51
#Mann= 3 , 0 , 0 
       0               0    21.3               0   385.7               0
Bank Sta=21.3,385.7
XS Rating Curve= 0 ,0
XS HTab Starting El and Incr=5.15,0.3, 45 
XS HTab Horizontal Distribution= 5 , 5 , 5 
Exp/Cntr(USF)=0,0
Exp/Cntr=0.3,0.1

Type RM Length L Ch R = 1 ,6580    ,712.3,712.3,712.3
XS GIS Cut Line=2
588508.7924584482327762.39119161588281.1449885042327576.80901502
Node Last Edited Time=Jul/23/2019 14:19:10
#Sta/Elev= 8 
       0   10.75     6.4   10.52    14.910.19971      15       5     140       0
     275       5   276.416.56656   293.7   17.91
#Mann= 3 , 0 , 0 
       0               0    14.9               0   276.4               0
Bank Sta=14.9,276.4
XS Rating Curve= 0 ,0
XS HTab Starting El and Incr=5.15,0.3, 43 
XS HTab Horizontal Distribution= 5 , 5 , 5 
Exp/Cntr(USF)=0,0
Exp/Cntr=0.3,0.1

Type RM Length L Ch R = 1 ,4243    ,617.7,617.7,617.7
XS GIS Cut Line=2
588918.9001833922327159.61994263588631.374824257 2326975.5436989
Node Last Edited Time=Jul/23/2019 14:19:50
#Sta/Elev= 11 
       0   11.72    15.9      11    25.210.16118      30       5     140       0
     295       5   298.813.88108   305.1   14.25   327.3   15.94     334    16.3
   341.4   16.76
#Mann= 3 , 0 , 0 
       0               0    25.2               0   298.8               0
Bank Sta=25.2,298.8
XS Rating Curve= 0 ,0
XS HTab Starting El and Incr=5.15,0.3, 39 
XS HTab Horizontal Distribution= 5 , 5 , 5 
Exp/Cntr(USF)=0,0
Exp/Cntr=0.3,0.1

Type RM Length L Ch R = 1 ,2216    ,153.8,153.8,153.8
XS GIS Cut Line=2
589249.9820795392326626.64920692588957.9994550462326463.33689153
Node Last Edited Time=Jul/23/2019 14:20:14
#Sta/Elev= 11 
       0   11.18     3.3   11.23     9.4   11.18    14.911.17141      15       5
     150       0     315       5   316.118.31497   319.4    18.2   328.9   18.71
   334.6   18.87
#Mann= 3 , 0 , 0 
       0               0    14.9               0   316.1               0
Bank Sta=14.9,316.1
XS Rating Curve= 0 ,0
XS HTab Starting El and Incr=5.15,0.3, 46 
XS HTab Horizontal Distribution= 5 , 5 , 5 
Exp/Cntr(USF)=0,0
Exp/Cntr=0.3,0.1

Type RM Length L Ch R = 1 ,1711    ,241.3,241.3,241.3
XS GIS Cut Line=2
589324.2149501732326507.87661391 589054.502186872326327.24329537
Node Last Edited Time=Jul/23/2019 14:20:38
#Sta/Elev= 9 
       0   20.18     1.8   20.23    15.4   20.11    17.620.18873      20       5
     145       0     310       5   312.2 12.3741   324.6   14.61
#Mann= 3 , 0 , 0 
       0               0    17.6               0   312.2               0
Bank Sta=17.6,312.2
XS Rating Curve= 0 ,0
XS HTab Starting El and Incr=5.15,0.3, 57 
XS HTab Horizontal Distribution= 5 , 5 , 5 
Exp/Cntr(USF)=0,0
Exp/Cntr=0.3,0.1

Type RM Length L Ch R = 1 ,919     ,271.4,271.4,271.4
XS GIS Cut Line=2
589435.5642561242326295.07571809589215.3400732432326141.66111878
Node Last Edited Time=Jul/23/2019 14:21:20
#Sta/Elev= 9 
       0    8.21    19.59.974285      20       5     120       0     250       5
   251.213.27765   251.5   13.29   253.9   13.54   268.4   15.61
#Mann= 3 , 0 , 0 
       0               0    19.5               0   251.2               0
Bank Sta=19.5,251.2
XS Rating Curve= 0 ,0
XS HTab Starting El and Incr=5.15,0.3, 35 
XS HTab Horizontal Distribution= 5 , 5 , 5 
Exp/Cntr(USF)=0,0
Exp/Cntr=0.3,0.1

Type RM Length L Ch R = 1 ,29      ,,,
XS GIS Cut Line=2
589554.336849138 2326062.4793901589423.1921110182325941.23236807
Node Last Edited Time=Jul/23/2019 14:23:40
#Sta/Elev= 8 
       0    5.45     6.9    4.63     9.74.664568      10       5      80       0
     170       5   170.37.323772   178.6    8.03
#Mann= 3 , 0 , 0 
       0               0     9.7               0   170.3               0
Bank Sta=9.7,170.3
XS Rating Curve= 0 ,0
XS HTab Starting El and Incr=4.15,0.19, 20 
XS HTab Horizontal Distribution= 5 , 5 , 5 
Exp/Cntr(USF)=0,0
Exp/Cntr=0.3,0.1

LCMann Time=Dec/30/1899 00:00:00
LCMann Region Time=Dec/30/1899 00:00:00
LCMann Table=0
Chan Stop Cuts=-1 



Use User Specified Reach Order=0
GIS Ratio Cuts To Invert=-1
GIS Limit At Bridges=0
Composite Channel Slope=5
