Geom Title=2D flow Area
Program Version=5.06
Viewing Rectangle= 586636.778127386 , 590472.770575604 , 2329344.5115503 , 2325745.3487071 

Storage Area=Perimeter 1     ,,
Storage Area Surface Line= 5 
586811.1414204872325928.67628839                
586811.1414204872329173.23866551                
 590292.020348692329166.85173169                
590298.4072825032325928.67628839                
586811.1414204872325928.67628839                
Storage Area Type= 1 
Storage Area Area=
Storage Area Min Elev=
Storage Area Is2D=-1
Storage Area Point Generation Data=,,90,90
Storage Area 2D Points= 1368 
586856.1414204872329128.23866551586946.1414204872329128.23866551
587036.1414204872329128.23866551587126.1414204872329128.23866551
587216.1414204872329128.23866551587306.1414204872329128.23866551
587396.1414204872329128.23866551587486.1414204872329128.23866551
587576.1414204872329128.23866551587666.1414204872329128.23866551
587756.1414204872329128.23866551587846.1414204872329128.23866551
587936.1414204872329128.23866551588026.1414204872329128.23866551
588116.1414204872329128.23866551588206.1414204872329128.23866551
588296.1414204872329128.23866551588386.1414204872329128.23866551
588476.1414204872329128.23866551588566.1414204872329128.23866551
588656.1414204872329128.23866551588746.1414204872329128.23866551
588836.1414204872329128.23866551588926.1414204872329128.23866551
589016.1414204872329128.23866551589106.1414204872329128.23866551
589196.1414204872329128.23866551589286.1414204872329128.23866551
589376.1414204872329128.23866551589466.1414204872329128.23866551
589556.1414204872329128.23866551589646.1414204872329128.23866551
589736.1414204872329128.23866551589826.1414204872329128.23866551
589916.1414204872329128.23866551590006.1414204872329128.23866551
590096.1414204872329128.23866551590186.1414204872329128.23866551
586856.1414204872329038.23866551586946.1414204872329038.23866551
587036.1414204872329038.23866551587126.1414204872329038.23866551
587216.1414204872329038.23866551587306.1414204872329038.23866551
587396.1414204872329038.23866551587486.1414204872329038.23866551
587576.1414204872329038.23866551587666.1414204872329038.23866551
587756.1414204872329038.23866551587846.1414204872329038.23866551
587936.1414204872329038.23866551588026.1414204872329038.23866551
588116.1414204872329038.23866551588206.1414204872329038.23866551
588296.1414204872329038.23866551588386.1414204872329038.23866551
588476.1414204872329038.23866551588566.1414204872329038.23866551
588656.1414204872329038.23866551588746.1414204872329038.23866551
588836.1414204872329038.23866551588926.1414204872329038.23866551
589016.1414204872329038.23866551589106.1414204872329038.23866551
589196.1414204872329038.23866551589286.1414204872329038.23866551
589376.1414204872329038.23866551589466.1414204872329038.23866551
589556.1414204872329038.23866551589646.1414204872329038.23866551
589736.1414204872329038.23866551589826.1414204872329038.23866551
589916.1414204872329038.23866551590006.1414204872329038.23866551
590096.1414204872329038.23866551590186.1414204872329038.23866551
586856.1414204872328948.23866551586946.1414204872328948.23866551
587036.1414204872328948.23866551587126.1414204872328948.23866551
587216.1414204872328948.23866551587306.1414204872328948.23866551
587396.1414204872328948.23866551587486.1414204872328948.23866551
587576.1414204872328948.23866551587666.1414204872328948.23866551
587756.1414204872328948.23866551587846.1414204872328948.23866551
587936.1414204872328948.23866551588026.1414204872328948.23866551
588116.1414204872328948.23866551588206.1414204872328948.23866551
588296.1414204872328948.23866551588386.1414204872328948.23866551
588476.1414204872328948.23866551588566.1414204872328948.23866551
588656.1414204872328948.23866551588746.1414204872328948.23866551
588836.1414204872328948.23866551588926.1414204872328948.23866551
589016.1414204872328948.23866551589106.1414204872328948.23866551
589196.1414204872328948.23866551589286.1414204872328948.23866551
589376.1414204872328948.23866551589466.1414204872328948.23866551
589556.1414204872328948.23866551589646.1414204872328948.23866551
589736.1414204872328948.23866551589826.1414204872328948.23866551
589916.1414204872328948.23866551590006.1414204872328948.23866551
590096.1414204872328948.23866551590186.1414204872328948.23866551
586856.1414204872328858.23866551586946.1414204872328858.23866551
587036.1414204872328858.23866551587126.1414204872328858.23866551
587216.1414204872328858.23866551587306.1414204872328858.23866551
587396.1414204872328858.23866551587486.1414204872328858.23866551
587576.1414204872328858.23866551587666.1414204872328858.23866551
587756.1414204872328858.23866551587846.1414204872328858.23866551
587936.1414204872328858.23866551588026.1414204872328858.23866551
588116.1414204872328858.23866551588206.1414204872328858.23866551
588296.1414204872328858.23866551588386.1414204872328858.23866551
588476.1414204872328858.23866551588566.1414204872328858.23866551
588656.1414204872328858.23866551588746.1414204872328858.23866551
588836.1414204872328858.23866551588926.1414204872328858.23866551
589016.1414204872328858.23866551589106.1414204872328858.23866551
589196.1414204872328858.23866551589286.1414204872328858.23866551
589376.1414204872328858.23866551589466.1414204872328858.23866551
589556.1414204872328858.23866551589646.1414204872328858.23866551
589736.1414204872328858.23866551589826.1414204872328858.23866551
589916.1414204872328858.23866551590006.1414204872328858.23866551
590096.1414204872328858.23866551590186.1414204872328858.23866551
586856.1414204872328768.23866551586946.1414204872328768.23866551
587036.1414204872328768.23866551587126.1414204872328768.23866551
587216.1414204872328768.23866551587306.1414204872328768.23866551
587396.1414204872328768.23866551587486.1414204872328768.23866551
587576.1414204872328768.23866551587666.1414204872328768.23866551
587756.1414204872328768.23866551587846.1414204872328768.23866551
587936.1414204872328768.23866551588026.1414204872328768.23866551
588116.1414204872328768.23866551588206.1414204872328768.23866551
588296.1414204872328768.23866551588386.1414204872328768.23866551
588476.1414204872328768.23866551588566.1414204872328768.23866551
588656.1414204872328768.23866551588746.1414204872328768.23866551
588836.1414204872328768.23866551588926.1414204872328768.23866551
589016.1414204872328768.23866551589106.1414204872328768.23866551
589196.1414204872328768.23866551589286.1414204872328768.23866551
589376.1414204872328768.23866551589466.1414204872328768.23866551
589556.1414204872328768.23866551589646.1414204872328768.23866551
589736.1414204872328768.23866551589826.1414204872328768.23866551
589916.1414204872328768.23866551590006.1414204872328768.23866551
590096.1414204872328768.23866551590186.1414204872328768.23866551
586856.1414204872328678.23866551586946.1414204872328678.23866551
587036.1414204872328678.23866551587126.1414204872328678.23866551
587216.1414204872328678.23866551587306.1414204872328678.23866551
587396.1414204872328678.23866551587486.1414204872328678.23866551
587576.1414204872328678.23866551587666.1414204872328678.23866551
587756.1414204872328678.23866551587846.1414204872328678.23866551
587936.1414204872328678.23866551588026.1414204872328678.23866551
588116.1414204872328678.23866551588206.1414204872328678.23866551
588296.1414204872328678.23866551588386.1414204872328678.23866551
588476.1414204872328678.23866551588566.1414204872328678.23866551
588656.1414204872328678.23866551588746.1414204872328678.23866551
588836.1414204872328678.23866551588926.1414204872328678.23866551
589016.1414204872328678.23866551589106.1414204872328678.23866551
589196.1414204872328678.23866551589286.1414204872328678.23866551
589376.1414204872328678.23866551589466.1414204872328678.23866551
589556.1414204872328678.23866551589646.1414204872328678.23866551
589736.1414204872328678.23866551589826.1414204872328678.23866551
589916.1414204872328678.23866551590006.1414204872328678.23866551
590096.1414204872328678.23866551590186.1414204872328678.23866551
586856.1414204872328588.23866551586946.1414204872328588.23866551
587036.1414204872328588.23866551587126.1414204872328588.23866551
587216.1414204872328588.23866551587306.1414204872328588.23866551
587396.1414204872328588.23866551587486.1414204872328588.23866551
587576.1414204872328588.23866551587666.1414204872328588.23866551
587756.1414204872328588.23866551587846.1414204872328588.23866551
587936.1414204872328588.23866551588026.1414204872328588.23866551
588116.1414204872328588.23866551588206.1414204872328588.23866551
588296.1414204872328588.23866551588386.1414204872328588.23866551
588476.1414204872328588.23866551588566.1414204872328588.23866551
588656.1414204872328588.23866551588746.1414204872328588.23866551
588836.1414204872328588.23866551588926.1414204872328588.23866551
589016.1414204872328588.23866551589106.1414204872328588.23866551
589196.1414204872328588.23866551589286.1414204872328588.23866551
589376.1414204872328588.23866551589466.1414204872328588.23866551
589556.1414204872328588.23866551589646.1414204872328588.23866551
589736.1414204872328588.23866551589826.1414204872328588.23866551
589916.1414204872328588.23866551590006.1414204872328588.23866551
590096.1414204872328588.23866551590186.1414204872328588.23866551
586856.1414204872328498.23866551586946.1414204872328498.23866551
587036.1414204872328498.23866551587126.1414204872328498.23866551
587216.1414204872328498.23866551587306.1414204872328498.23866551
587396.1414204872328498.23866551587486.1414204872328498.23866551
587576.1414204872328498.23866551587666.1414204872328498.23866551
587756.1414204872328498.23866551587846.1414204872328498.23866551
587936.1414204872328498.23866551588026.1414204872328498.23866551
588116.1414204872328498.23866551588206.1414204872328498.23866551
588296.1414204872328498.23866551588386.1414204872328498.23866551
588476.1414204872328498.23866551588566.1414204872328498.23866551
588656.1414204872328498.23866551588746.1414204872328498.23866551
588836.1414204872328498.23866551588926.1414204872328498.23866551
589016.1414204872328498.23866551589106.1414204872328498.23866551
589196.1414204872328498.23866551589286.1414204872328498.23866551
589376.1414204872328498.23866551589466.1414204872328498.23866551
589556.1414204872328498.23866551589646.1414204872328498.23866551
589736.1414204872328498.23866551589826.1414204872328498.23866551
589916.1414204872328498.23866551590006.1414204872328498.23866551
590096.1414204872328498.23866551590186.1414204872328498.23866551
586856.1414204872328408.23866551586946.1414204872328408.23866551
587036.1414204872328408.23866551587126.1414204872328408.23866551
587216.1414204872328408.23866551587306.1414204872328408.23866551
587396.1414204872328408.23866551587486.1414204872328408.23866551
587576.1414204872328408.23866551587666.1414204872328408.23866551
587756.1414204872328408.23866551587846.1414204872328408.23866551
587936.1414204872328408.23866551588026.1414204872328408.23866551
588116.1414204872328408.23866551588206.1414204872328408.23866551
588296.1414204872328408.23866551588386.1414204872328408.23866551
588476.1414204872328408.23866551588566.1414204872328408.23866551
588656.1414204872328408.23866551588746.1414204872328408.23866551
588836.1414204872328408.23866551588926.1414204872328408.23866551
589016.1414204872328408.23866551589106.1414204872328408.23866551
589196.1414204872328408.23866551589286.1414204872328408.23866551
589376.1414204872328408.23866551589466.1414204872328408.23866551
589556.1414204872328408.23866551589646.1414204872328408.23866551
589736.1414204872328408.23866551589826.1414204872328408.23866551
589916.1414204872328408.23866551590006.1414204872328408.23866551
590096.1414204872328408.23866551590186.1414204872328408.23866551
586856.1414204872328318.23866551586946.1414204872328318.23866551
587036.1414204872328318.23866551587126.1414204872328318.23866551
587216.1414204872328318.23866551587306.1414204872328318.23866551
587396.1414204872328318.23866551587486.1414204872328318.23866551
587576.1414204872328318.23866551587666.1414204872328318.23866551
587756.1414204872328318.23866551587846.1414204872328318.23866551
587936.1414204872328318.23866551588026.1414204872328318.23866551
588116.1414204872328318.23866551588206.1414204872328318.23866551
588296.1414204872328318.23866551588386.1414204872328318.23866551
588476.1414204872328318.23866551588566.1414204872328318.23866551
588656.1414204872328318.23866551588746.1414204872328318.23866551
588836.1414204872328318.23866551588926.1414204872328318.23866551
589016.1414204872328318.23866551589106.1414204872328318.23866551
589196.1414204872328318.23866551589286.1414204872328318.23866551
589376.1414204872328318.23866551589466.1414204872328318.23866551
589556.1414204872328318.23866551589646.1414204872328318.23866551
589736.1414204872328318.23866551589826.1414204872328318.23866551
589916.1414204872328318.23866551590006.1414204872328318.23866551
590096.1414204872328318.23866551590186.1414204872328318.23866551
586856.1414204872328228.23866551586946.1414204872328228.23866551
587036.1414204872328228.23866551587126.1414204872328228.23866551
587216.1414204872328228.23866551587306.1414204872328228.23866551
587396.1414204872328228.23866551587486.1414204872328228.23866551
587576.1414204872328228.23866551587666.1414204872328228.23866551
587756.1414204872328228.23866551587846.1414204872328228.23866551
587936.1414204872328228.23866551588026.1414204872328228.23866551
588116.1414204872328228.23866551588206.1414204872328228.23866551
588296.1414204872328228.23866551588386.1414204872328228.23866551
588476.1414204872328228.23866551588566.1414204872328228.23866551
588656.1414204872328228.23866551588746.1414204872328228.23866551
588836.1414204872328228.23866551588926.1414204872328228.23866551
589016.1414204872328228.23866551589106.1414204872328228.23866551
589196.1414204872328228.23866551589286.1414204872328228.23866551
589376.1414204872328228.23866551589466.1414204872328228.23866551
589556.1414204872328228.23866551589646.1414204872328228.23866551
589736.1414204872328228.23866551589826.1414204872328228.23866551
589916.1414204872328228.23866551590006.1414204872328228.23866551
590096.1414204872328228.23866551590186.1414204872328228.23866551
586856.1414204872328138.23866551586946.1414204872328138.23866551
587036.1414204872328138.23866551587126.1414204872328138.23866551
587216.1414204872328138.23866551587306.1414204872328138.23866551
587396.1414204872328138.23866551587486.1414204872328138.23866551
587576.1414204872328138.23866551587666.1414204872328138.23866551
587756.1414204872328138.23866551587846.1414204872328138.23866551
587936.1414204872328138.23866551588026.1414204872328138.23866551
588116.1414204872328138.23866551588206.1414204872328138.23866551
588296.1414204872328138.23866551588386.1414204872328138.23866551
588476.1414204872328138.23866551588566.1414204872328138.23866551
588656.1414204872328138.23866551588746.1414204872328138.23866551
588836.1414204872328138.23866551588926.1414204872328138.23866551
589016.1414204872328138.23866551589106.1414204872328138.23866551
589196.1414204872328138.23866551589286.1414204872328138.23866551
589376.1414204872328138.23866551589466.1414204872328138.23866551
589556.1414204872328138.23866551589646.1414204872328138.23866551
589736.1414204872328138.23866551589826.1414204872328138.23866551
589916.1414204872328138.23866551590006.1414204872328138.23866551
590096.1414204872328138.23866551590186.1414204872328138.23866551
586856.1414204872328048.23866551586946.1414204872328048.23866551
587036.1414204872328048.23866551587126.1414204872328048.23866551
587216.1414204872328048.23866551587306.1414204872328048.23866551
587396.1414204872328048.23866551587486.1414204872328048.23866551
587576.1414204872328048.23866551587666.1414204872328048.23866551
587756.1414204872328048.23866551587846.1414204872328048.23866551
587936.1414204872328048.23866551588026.1414204872328048.23866551
588116.1414204872328048.23866551588206.1414204872328048.23866551
588296.1414204872328048.23866551588386.1414204872328048.23866551
588476.1414204872328048.23866551588566.1414204872328048.23866551
588656.1414204872328048.23866551588746.1414204872328048.23866551
588836.1414204872328048.23866551588926.1414204872328048.23866551
589016.1414204872328048.23866551589106.1414204872328048.23866551
589196.1414204872328048.23866551589286.1414204872328048.23866551
589376.1414204872328048.23866551589466.1414204872328048.23866551
589556.1414204872328048.23866551589646.1414204872328048.23866551
589736.1414204872328048.23866551589826.1414204872328048.23866551
589916.1414204872328048.23866551590006.1414204872328048.23866551
590096.1414204872328048.23866551590186.1414204872328048.23866551
586856.1414204872327958.23866551586946.1414204872327958.23866551
587036.1414204872327958.23866551587126.1414204872327958.23866551
587216.1414204872327958.23866551587306.1414204872327958.23866551
587396.1414204872327958.23866551587486.1414204872327958.23866551
587576.1414204872327958.23866551587666.1414204872327958.23866551
587756.1414204872327958.23866551587846.1414204872327958.23866551
587936.1414204872327958.23866551588026.1414204872327958.23866551
588116.1414204872327958.23866551588206.1414204872327958.23866551
588296.1414204872327958.23866551588386.1414204872327958.23866551
588476.1414204872327958.23866551588566.1414204872327958.23866551
588656.1414204872327958.23866551588746.1414204872327958.23866551
588836.1414204872327958.23866551588926.1414204872327958.23866551
589016.1414204872327958.23866551589106.1414204872327958.23866551
589196.1414204872327958.23866551589286.1414204872327958.23866551
589376.1414204872327958.23866551589466.1414204872327958.23866551
589556.1414204872327958.23866551589646.1414204872327958.23866551
589736.1414204872327958.23866551589826.1414204872327958.23866551
589916.1414204872327958.23866551590006.1414204872327958.23866551
590096.1414204872327958.23866551590186.1414204872327958.23866551
586856.1414204872327868.23866551586946.1414204872327868.23866551
587036.1414204872327868.23866551587126.1414204872327868.23866551
587216.1414204872327868.23866551587306.1414204872327868.23866551
587396.1414204872327868.23866551587486.1414204872327868.23866551
587576.1414204872327868.23866551587666.1414204872327868.23866551
587756.1414204872327868.23866551587846.1414204872327868.23866551
587936.1414204872327868.23866551588026.1414204872327868.23866551
588116.1414204872327868.23866551588206.1414204872327868.23866551
588296.1414204872327868.23866551588386.1414204872327868.23866551
588476.1414204872327868.23866551588566.1414204872327868.23866551
588656.1414204872327868.23866551588746.1414204872327868.23866551
588836.1414204872327868.23866551588926.1414204872327868.23866551
589016.1414204872327868.23866551589106.1414204872327868.23866551
589196.1414204872327868.23866551589286.1414204872327868.23866551
589376.1414204872327868.23866551589466.1414204872327868.23866551
589556.1414204872327868.23866551589646.1414204872327868.23866551
589736.1414204872327868.23866551589826.1414204872327868.23866551
589916.1414204872327868.23866551590006.1414204872327868.23866551
590096.1414204872327868.23866551590186.1414204872327868.23866551
586856.1414204872327778.23866551586946.1414204872327778.23866551
587036.1414204872327778.23866551587126.1414204872327778.23866551
587216.1414204872327778.23866551587306.1414204872327778.23866551
587396.1414204872327778.23866551587486.1414204872327778.23866551
587576.1414204872327778.23866551587666.1414204872327778.23866551
587756.1414204872327778.23866551587846.1414204872327778.23866551
587936.1414204872327778.23866551588026.1414204872327778.23866551
588116.1414204872327778.23866551588206.1414204872327778.23866551
588296.1414204872327778.23866551588386.1414204872327778.23866551
588476.1414204872327778.23866551588566.1414204872327778.23866551
588656.1414204872327778.23866551588746.1414204872327778.23866551
588836.1414204872327778.23866551588926.1414204872327778.23866551
589016.1414204872327778.23866551589106.1414204872327778.23866551
589196.1414204872327778.23866551589286.1414204872327778.23866551
589376.1414204872327778.23866551589466.1414204872327778.23866551
589556.1414204872327778.23866551589646.1414204872327778.23866551
589736.1414204872327778.23866551589826.1414204872327778.23866551
589916.1414204872327778.23866551590006.1414204872327778.23866551
590096.1414204872327778.23866551590186.1414204872327778.23866551
586856.1414204872327688.23866551586946.1414204872327688.23866551
587036.1414204872327688.23866551587126.1414204872327688.23866551
587216.1414204872327688.23866551587306.1414204872327688.23866551
587396.1414204872327688.23866551587486.1414204872327688.23866551
587576.1414204872327688.23866551587666.1414204872327688.23866551
587756.1414204872327688.23866551587846.1414204872327688.23866551
587936.1414204872327688.23866551588026.1414204872327688.23866551
588116.1414204872327688.23866551588206.1414204872327688.23866551
588296.1414204872327688.23866551588386.1414204872327688.23866551
588476.1414204872327688.23866551588566.1414204872327688.23866551
588656.1414204872327688.23866551588746.1414204872327688.23866551
588836.1414204872327688.23866551588926.1414204872327688.23866551
589016.1414204872327688.23866551589106.1414204872327688.23866551
589196.1414204872327688.23866551589286.1414204872327688.23866551
589376.1414204872327688.23866551589466.1414204872327688.23866551
589556.1414204872327688.23866551589646.1414204872327688.23866551
589736.1414204872327688.23866551589826.1414204872327688.23866551
589916.1414204872327688.23866551590006.1414204872327688.23866551
590096.1414204872327688.23866551590186.1414204872327688.23866551
586856.1414204872327598.23866551586946.1414204872327598.23866551
587036.1414204872327598.23866551587126.1414204872327598.23866551
587216.1414204872327598.23866551587306.1414204872327598.23866551
587396.1414204872327598.23866551587486.1414204872327598.23866551
587576.1414204872327598.23866551587666.1414204872327598.23866551
587756.1414204872327598.23866551587846.1414204872327598.23866551
587936.1414204872327598.23866551588026.1414204872327598.23866551
588116.1414204872327598.23866551588206.1414204872327598.23866551
588296.1414204872327598.23866551588386.1414204872327598.23866551
588476.1414204872327598.23866551588566.1414204872327598.23866551
588656.1414204872327598.23866551588746.1414204872327598.23866551
588836.1414204872327598.23866551588926.1414204872327598.23866551
589016.1414204872327598.23866551589106.1414204872327598.23866551
589196.1414204872327598.23866551589286.1414204872327598.23866551
589376.1414204872327598.23866551589466.1414204872327598.23866551
589556.1414204872327598.23866551589646.1414204872327598.23866551
589736.1414204872327598.23866551589826.1414204872327598.23866551
589916.1414204872327598.23866551590006.1414204872327598.23866551
590096.1414204872327598.23866551590186.1414204872327598.23866551
586856.1414204872327508.23866551586946.1414204872327508.23866551
587036.1414204872327508.23866551587126.1414204872327508.23866551
587216.1414204872327508.23866551587306.1414204872327508.23866551
587396.1414204872327508.23866551587486.1414204872327508.23866551
587576.1414204872327508.23866551587666.1414204872327508.23866551
587756.1414204872327508.23866551587846.1414204872327508.23866551
587936.1414204872327508.23866551588026.1414204872327508.23866551
588116.1414204872327508.23866551588206.1414204872327508.23866551
588296.1414204872327508.23866551588386.1414204872327508.23866551
588476.1414204872327508.23866551588566.1414204872327508.23866551
588656.1414204872327508.23866551588746.1414204872327508.23866551
588836.1414204872327508.23866551588926.1414204872327508.23866551
589016.1414204872327508.23866551589106.1414204872327508.23866551
589196.1414204872327508.23866551589286.1414204872327508.23866551
589376.1414204872327508.23866551589466.1414204872327508.23866551
589556.1414204872327508.23866551589646.1414204872327508.23866551
589736.1414204872327508.23866551589826.1414204872327508.23866551
589916.1414204872327508.23866551590006.1414204872327508.23866551
590096.1414204872327508.23866551590186.1414204872327508.23866551
586856.1414204872327418.23866551586946.1414204872327418.23866551
587036.1414204872327418.23866551587126.1414204872327418.23866551
587216.1414204872327418.23866551587306.1414204872327418.23866551
587396.1414204872327418.23866551587486.1414204872327418.23866551
587576.1414204872327418.23866551587666.1414204872327418.23866551
587756.1414204872327418.23866551587846.1414204872327418.23866551
587936.1414204872327418.23866551588026.1414204872327418.23866551
588116.1414204872327418.23866551588206.1414204872327418.23866551
588296.1414204872327418.23866551588386.1414204872327418.23866551
588476.1414204872327418.23866551588566.1414204872327418.23866551
588656.1414204872327418.23866551588746.1414204872327418.23866551
588836.1414204872327418.23866551588926.1414204872327418.23866551
589016.1414204872327418.23866551589106.1414204872327418.23866551
589196.1414204872327418.23866551589286.1414204872327418.23866551
589376.1414204872327418.23866551589466.1414204872327418.23866551
589556.1414204872327418.23866551589646.1414204872327418.23866551
589736.1414204872327418.23866551589826.1414204872327418.23866551
589916.1414204872327418.23866551590006.1414204872327418.23866551
590096.1414204872327418.23866551590186.1414204872327418.23866551
586856.1414204872327328.23866551586946.1414204872327328.23866551
587036.1414204872327328.23866551587126.1414204872327328.23866551
587216.1414204872327328.23866551587306.1414204872327328.23866551
587396.1414204872327328.23866551587486.1414204872327328.23866551
587576.1414204872327328.23866551587666.1414204872327328.23866551
587756.1414204872327328.23866551587846.1414204872327328.23866551
587936.1414204872327328.23866551588026.1414204872327328.23866551
588116.1414204872327328.23866551588206.1414204872327328.23866551
588296.1414204872327328.23866551588386.1414204872327328.23866551
588476.1414204872327328.23866551588566.1414204872327328.23866551
588656.1414204872327328.23866551588746.1414204872327328.23866551
588836.1414204872327328.23866551588926.1414204872327328.23866551
589016.1414204872327328.23866551589106.1414204872327328.23866551
589196.1414204872327328.23866551589286.1414204872327328.23866551
589376.1414204872327328.23866551589466.1414204872327328.23866551
589556.1414204872327328.23866551589646.1414204872327328.23866551
589736.1414204872327328.23866551589826.1414204872327328.23866551
589916.1414204872327328.23866551590006.1414204872327328.23866551
590096.1414204872327328.23866551590186.1414204872327328.23866551
586856.1414204872327238.23866551586946.1414204872327238.23866551
587036.1414204872327238.23866551587126.1414204872327238.23866551
587216.1414204872327238.23866551587306.1414204872327238.23866551
587396.1414204872327238.23866551587486.1414204872327238.23866551
587576.1414204872327238.23866551587666.1414204872327238.23866551
587756.1414204872327238.23866551587846.1414204872327238.23866551
587936.1414204872327238.23866551588026.1414204872327238.23866551
588116.1414204872327238.23866551588206.1414204872327238.23866551
588296.1414204872327238.23866551588386.1414204872327238.23866551
588476.1414204872327238.23866551588566.1414204872327238.23866551
588656.1414204872327238.23866551588746.1414204872327238.23866551
588836.1414204872327238.23866551588926.1414204872327238.23866551
589016.1414204872327238.23866551589106.1414204872327238.23866551
589196.1414204872327238.23866551589286.1414204872327238.23866551
589376.1414204872327238.23866551589466.1414204872327238.23866551
589556.1414204872327238.23866551589646.1414204872327238.23866551
589736.1414204872327238.23866551589826.1414204872327238.23866551
589916.1414204872327238.23866551590006.1414204872327238.23866551
590096.1414204872327238.23866551590186.1414204872327238.23866551
586856.1414204872327148.23866551586946.1414204872327148.23866551
587036.1414204872327148.23866551587126.1414204872327148.23866551
587216.1414204872327148.23866551587306.1414204872327148.23866551
587396.1414204872327148.23866551587486.1414204872327148.23866551
587576.1414204872327148.23866551587666.1414204872327148.23866551
587756.1414204872327148.23866551587846.1414204872327148.23866551
587936.1414204872327148.23866551588026.1414204872327148.23866551
588116.1414204872327148.23866551588206.1414204872327148.23866551
588296.1414204872327148.23866551588386.1414204872327148.23866551
588476.1414204872327148.23866551588566.1414204872327148.23866551
588656.1414204872327148.23866551588746.1414204872327148.23866551
588836.1414204872327148.23866551588926.1414204872327148.23866551
589016.1414204872327148.23866551589106.1414204872327148.23866551
589196.1414204872327148.23866551589286.1414204872327148.23866551
589376.1414204872327148.23866551589466.1414204872327148.23866551
589556.1414204872327148.23866551589646.1414204872327148.23866551
589736.1414204872327148.23866551589826.1414204872327148.23866551
589916.1414204872327148.23866551590006.1414204872327148.23866551
590096.1414204872327148.23866551590186.1414204872327148.23866551
586856.1414204872327058.23866551586946.1414204872327058.23866551
587036.1414204872327058.23866551587126.1414204872327058.23866551
587216.1414204872327058.23866551587306.1414204872327058.23866551
587396.1414204872327058.23866551587486.1414204872327058.23866551
587576.1414204872327058.23866551587666.1414204872327058.23866551
587756.1414204872327058.23866551587846.1414204872327058.23866551
587936.1414204872327058.23866551588026.1414204872327058.23866551
588116.1414204872327058.23866551588206.1414204872327058.23866551